# generated using pymatgen
data_Ga
_symmetry_space_group_name_H-M   'P 1'
_cell_length_a   4.56897947
_cell_length_b   7.74070490
_cell_length_c   4.60180942
_cell_angle_alpha   90.00000000
_cell_angle_beta   90.00000000
_cell_angle_gamma   90.00000000
_symmetry_Int_Tables_number   1
_chemical_formula_structural   Ga
_chemical_formula_sum   Ga8
_cell_volume   162.75275421
_cell_formula_units_Z   8
loop_
 _symmetry_equiv_pos_site_id
 _symmetry_equiv_pos_as_xyz
  1  'x, y, z'
loop_
 _atom_site_type_symbol
 _atom_site_label
 _atom_site_symmetry_multiplicity
 _atom_site_fract_x
 _atom_site_fract_y
 _atom_site_fract_z
 _atom_site_occupancy
  Ga  Ga0  1  0.500000  0.843742  0.418196  1
  Ga  Ga1  1  0.500000  0.656258  0.918196  1
  Ga  Ga2  1  0.500000  0.156258  0.581804  1
  Ga  Ga3  1  0.500000  0.343742  0.081804  1
  Ga  Ga4  1  0.000000  0.343742  0.418196  1
  Ga  Ga5  1  0.000000  0.156258  0.918196  1
  Ga  Ga6  1  0.000000  0.656258  0.581804  1
  Ga  Ga7  1  0.000000  0.843742  0.081804  1
