# generated using pymatgen
data_Bi
_symmetry_space_group_name_H-M   'P 1'
_cell_length_a   4.60958611
_cell_length_b   4.60958611
_cell_length_c   11.97547308
_cell_angle_alpha   90.00000000
_cell_angle_beta   90.00000000
_cell_angle_gamma   120.00000000
_symmetry_Int_Tables_number   1
_chemical_formula_structural   Bi
_chemical_formula_sum   Bi6
_cell_volume   220.36731294
_cell_formula_units_Z   6
loop_
 _symmetry_equiv_pos_site_id
 _symmetry_equiv_pos_as_xyz
  1  'x, y, z'
loop_
 _atom_site_type_symbol
 _atom_site_label
 _atom_site_symmetry_multiplicity
 _atom_site_fract_x
 _atom_site_fract_y
 _atom_site_fract_z
 _atom_site_occupancy
  Bi  Bi0  1  0.00000000  0.00000000  0.26721600  1
  Bi  Bi1  1  0.66666667  0.33333333  0.06611733  1
  Bi  Bi2  1  0.66666667  0.33333333  0.60054933  1
  Bi  Bi3  1  0.33333333  0.66666667  0.39945067  1
  Bi  Bi4  1  0.33333333  0.66666667  0.93388267  1
  Bi  Bi5  1  0.00000000  0.00000000  0.73278400  1
