384
Lattice="16.7199999999999989       0.0000000000000000       0.0000000000000000       0.0000000000000000      16.7199999999999989       0.0000000000000000       0.0000000000000000       0.0000000000000000      20.6283137369" Properties="species:S:1:pos:R:3"
Al   1.6719999999908023E+01   1.6719999999856974E+01   1.2539999999807094E+01
Al   2.0900000004113100E+00   2.0899999998762206E+00   4.1510247169980233E-10
Al   2.0900000002478372E+00   1.6719999999968412E+01   2.0899999998303329E+00
Al   1.6719999999819564E+01   2.0900000003502117E+00   2.0900000003784100E+00
Al   1.6719999999799004E+01   1.6719999999837441E+01   4.1799999999428730E+00
Al   2.0900000003328723E+00   2.0899999999126808E+00   4.1800000002240933E+00
Al   2.0900000003018553E+00   1.6719999999954133E+01   6.2699999998603122E+00
Al   1.6719999999958176E+01   2.0900000002479833E+00   6.2700000002116489E+00
Al   1.6719999999975467E+01   4.1692812768038784E-10   8.3599999998397241E+00
Al   2.0899999997932701E+00   2.0899999999346024E+00   8.3600000003866271E+00
Al   2.0899999999880983E+00   3.2262770214367345E-10   1.0449999999871588E+01
Al   2.7717966614024265E-10   2.0900000003802304E+00   1.0449999999793841E+01
Al   1.6719999999801058E+01   4.1800000003284685E+00   1.2539999999801092E+01
Al   2.0899999999875165E+00   6.2699999999772009E+00   3.3215082290527340E-10
Al   2.0899999997978198E+00   4.1800000003703781E+00   2.0900000002650030E+00
Al   2.1130839303378595E-10   6.2700000002609393E+00   2.0900000003213890E+00
Al   4.0001915452053136E-10   4.1799999999251449E+00   4.1799999998900939E+00
Al   2.0900000003598245E+00   6.2700000003666450E+00   4.1800000003782056E+00
Al   2.0899999998805217E+00   4.1799999998096409E+00   6.2699999999281424E+00
Al   2.8020068358306626E-10   6.2699999998926046E+00   6.2699999998248170E+00
Al   2.3672859921396236E-10   4.1800000003980129E+00   8.3600000003108477E+00
Al   2.0899999998494851E+00   6.2700000003678769E+00   8.3600000004052522E+00
Al   2.0900000002491694E+00   4.1799999998636457E+00   1.0449999999900045E+01
Al   1.6719999999967708E+01   6.2700000002280092E+00   1.0450000000402554E+01
Al   1.6719999999823749E+01   8.3600000002119685E+00   1.2539999999889273E+01
Al   2.0899999999385455E+00   1.0449999999931240E+01   1.2539999999839344E+01
Al   2.0899999997954475E+00   8.3600000002549972E+00   2.0900000002307686E+00
Al   3.3697307696133387E-10   1.0449999999809970E+01   2.0900000002090953E+00
Al   3.0132689987811502E-10   8.3600000002548960E+00   4.1799999998368067E+00
Al   2.0900000003358361E+00   1.0450000000352109E+01   4.1800000002644779E+00
Al   2.0900000003662900E+00   8.3600000003642005E+00   6.2699999998880811E+00
Al   2.6759602377082260E-10   1.0450000000220998E+01   6.2699999998476743E+00
Al   1.6719999999878517E+01   8.3600000002620227E+00   8.3600000002264991E+00
Al   2.0899999998086871E+00   1.0450000000305492E+01   8.3600000004065365E+00
Al   2.0899999998611900E+00   8.3599999998110608E+00   1.0450000000213810E+01
Al   3.0194597711759000E-10   1.0450000000230709E+01   1.0450000000400104E+01
Al   3.0876492958656403E-10   1.2540000000410002E+01   1.2539999999898782E+01
Al   2.0899999999799057E+00   1.4629999999901434E+01   2.1817984612066574E-10
Al   2.0900000003454959E+00   1.2539999999796036E+01   2.0899999999213890E+00
Al   1.6719999999940793E+01   1.4630000000258558E+01   2.0900000002951922E+00
Al   3.5186756705899803E-10   1.2539999999859347E+01   4.1800000003880902E+00
Al   2.0899999998186782E+00   1.4630000000392640E+01   4.1799999998266344E+00
Al   2.0900000002373993E+00   1.2539999999905657E+01   6.2699999999923905E+00
Al   1.6719999999940885E+01   1.4629999999940031E+01   6.2699999998217599E+00
Al   2.8020411656207806E-10   1.2540000000367460E+01   8.3599999998971395E+00
Al   2.0899999998989327E+00   1.4629999999973933E+01   8.3600000002822235E+00
Al   2.0900000002930379E+00   1.2539999999854182E+01   1.0450000000340200E+01
Al   1.6719999999855322E+01   1.4629999999874672E+01   1.0449999999820818E+01
Al   4.1800000003888842E+00   3.2192243974907603E-10   3.1518028522204735E-10
Al   6.2700000002952914E+00   2.0900000002577732E+00   3.5234699385775858E-10
Al   6.2699999998710823E+00   1.6719999999849371E+01   2.0899999998242151E+00
Al   4.1800000004155704E+00   2.0900000004163495E+00   2.0899999999782568E+00
Al   4.1800000002657480E+00   3.6584937388598695E-10   4.1800000004040605E+00
Al   6.2699999999971583E+00   2.0899999999160066E+00   4.1799999999411348E+00
Al   6.2699999998887517E+00   3.6353080113610086E-10   6.2700000003071361E+00
Al   4.1800000003016269E+00   2.0900000002261057E+00   6.2700000004143170E+00
Al   4.1800000003456406E+00   1.6719999999986765E+01   8.3600000002789461E+00
Al   6.2700000003063829E+00   2.0899999998250336E+00   8.3599999998096646E+00
Al   6.2699999999239742E+00   2.3014609816224190E-10   1.0450000000210634E+01
Al   4.1799999999942488E+00   2.0900000002266323E+00   1.0450000000341541E+01
Al   4.1800000004171434E+00   4.1799999998769932E+00   3.0602692279139869E-10
Al   6.2699999999564060E+00   6.2699999998750293E+00   1.2539999999976843E+01
Al   6.2699999998515255E+00   4.1799999998563502E+00   2.0900000002434416E+00
Al   4.1799999998826403E+00   6.2700000003634040E+00   2.0899999999702077E+00
Al   4.1800000003555420E+00   4.1799999998905886E+00   4.1800000003078299E+00
Al   6.2699999998651847E+00   6.2699999999509455E+00   4.1800000003848981E+00
Al   6.2700000002414384E+00   4.1799999998772090E+00   6.2700000002569878E+00
Al   4.1800000002816269E+00   6.2699999999831926E+00   6.2699999998305671E+00
Al   4.1800000002780147E+00   4.1800000002814617E+00   8.3600000003504267E+00
Al   6.2700000002182161E+00   6.2700000002873679E+00   8.3600000003956314E+00
Al   6.2700000004179133E+00   4.1800000003218418E+00   1.0449999999973659E+01
Al   4.1800000002504500E+00   6.2699999998894755E+00   1.0450000000303589E+01
Al   4.1799999999973663E+00   8.3599999998235699E+00   1.2539999999991684E+01
Al   6.2700000002378680E+00   1.0450000000398108E+01   3.5817415037881640E-10
Al   6.2700000003850382E+00   8.3599999998000083E+00   2.0900000004145429E+00
Al   4.1800000003815354E+00   1.0449999999878020E+01   2.0900000002302428E+00
Al   4.1799999998493975E+00   8.3600000003612891E+00   4.1800000004142630E+00
Al   6.2699999998310201E+00   1.0449999999901928E+01   4.1799999998833606E+00
Al   6.2699999998353668E+00   8.3599999999541446E+00   6.2699999997964024E+00
Al   4.1800000002880031E+00   1.0449999999979918E+01   6.2700000003049086E+00
Al   4.1799999999643607E+00   8.3599999998947343E+00   8.3599999998298795E+00
Al   6.2699999998338498E+00   1.0450000000250315E+01   8.3599999999550469E+00
Al   6.2700000002256742E+00   8.3599999999947556E+00   1.0450000000364962E+01
Al   4.1800000002435427E+00   1.0450000000362945E+01   1.0450000000408380E+01
Al   4.1800000003453324E+00   1.2539999999847156E+01   2.9650344173926452E-10
Al   6.2699999999567568E+00   1.4630000000322658E+01   1.2539999999828517E+01
Al   6.2699999998741438E+00   1.2540000000370421E+01   2.0900000002431103E+00
Al   4.1799999998808781E+00   1.4629999999964950E+01   2.0900000002782040E+00
Al   4.1799999998747310E+00   1.2540000000360500E+01   4.1799999999969728E+00
Al   6.2699999998536962E+00   1.4629999999829829E+01   4.1799999999965554E+00
Al   6.2699999997964690E+00   1.2540000000371133E+01   6.2699999998507678E+00
Al   4.1799999999828223E+00   1.4629999999834840E+01   6.2700000003874612E+00
Al   4.1800000002540232E+00   1.2540000000308996E+01   8.3599999997993724E+00
Al   6.2700000003180740E+00   1.4630000000249332E+01   8.3600000002206425E+00
Al   6.2699999999491158E+00   1.2540000000373073E+01   1.0449999999881728E+01
Al   4.1799999999929485E+00   1.4630000000352464E+01   1.0449999999812139E+01
Al   8.3599999999108494E+00   1.6719999999899724E+01   1.2539999999938681E+01
Al   1.0450000000232677E+01   2.0900000002471226E+00   2.7202357322070866E-10
Al   1.0449999999895651E+01   2.7973686431331198E-10   2.0900000003625583E+00
Al   8.3600000002480375E+00   2.0899999998991095E+00   2.0899999998142498E+00
Al   8.3599999998211416E+00   1.6719999999920827E+01   4.1799999998165687E+00
Al   1.0450000000390384E+01   2.0899999999581649E+00   4.1800000003411339E+00
Al   1.0449999999815109E+01   2.1912327359964947E-10   6.2699999998981424E+00
Al   8.3599999998019143E+00   2.0900000003290540E+00   6.2700000004169398E+00
Al   8.3599999998211043E+00   1.6719999999870954E+01   8.3599999998996832E+00
Al   1.0450000000384822E+01   2.0900000004077568E+00   8.3600000004022892E+00
Al   1.0450000000283476E+01   1.6719999999979727E+01   1.0450000000382444E+01
Al   8.3600000003770276E+00   2.0900000002411341E+00   1.0450000000364813E+01
Al   8.3600000003361910E+00   4.1800000003936209E+00   2.1800187116123647E-10
Al   1.0450000000237148E+01   6.2699999999262230E+00   1.2539999999793075E+01
Al   1.0450000000240383E+01   4.1799999998919031E+00   2.0900000002612980E+00
Al   8.3600000003100163E+00   6.2700000003255116E+00   2.0899999999957770E+00
Al   8.3599999999396903E+00   4.1800000003878264E+00   4.1799999998658857E+00
Al   1.0449999999960673E+01   6.2700000002268990E+00   4.1800000004172579E+00
Al   1.0450000000369272E+01   4.1800000003389224E+00   6.2699999998048419E+00
Al   8.3599999999989389E+00   6.2700000003385634E+00   6.2699999999885518E+00
Al   8.3600000002529669E+00   4.1800000004119733E+00   8.3600000003360648E+00
Al   1.0450000000314866E+01   6.2700000003367409E+00   8.3600000002861758E+00
Al   1.0449999999979452E+01   4.1800000002281141E+00   1.0449999999935798E+01
Al   8.3600000002662469E+00   6.2699999998727005E+00   1.0450000000220657E+01
Al   8.3600000003737005E+00   8.3599999999067478E+00   3.5610344311259272E-10
Al   1.0450000000378024E+01   1.0449999999986945E+01   1.2539999999855867E+01
Al   1.0449999999931599E+01   8.3600000004085917E+00   2.0900000003548729E+00
Al   8.3599999999158090E+00   1.0449999999857479E+01   2.0900000002951851E+00
Al   8.3599999997913201E+00   8.3599999999203334E+00   4.1800000002242976E+00
Al   1.0450000000221809E+01   1.0449999999815720E+01   4.1800000002995548E+00
Al   1.0449999999842943E+01   8.3600000002458135E+00   6.2700000002194631E+00
Al   8.3599999998101762E+00   1.0449999999800125E+01   6.2700000002623231E+00
Al   8.3600000004135868E+00   8.3600000003397099E+00   8.3599999999900483E+00
Al   1.0449999999907607E+01   1.0450000000336383E+01   8.3599999998404115E+00
Al   1.0449999999874173E+01   8.3600000002985446E+00   1.0449999999874199E+01
Al   8.3600000003311763E+00   1.0450000000272805E+01   1.0450000000383794E+01
Al   8.3599999997921088E+00   1.2540000000363762E+01   1.2539999999812490E+01
Al   1.0450000000382923E+01   1.4630000000379907E+01   2.9445198850818801E-10
Al   1.0449999999910741E+01   1.2539999999807931E+01   2.0900000002341028E+00
Al   8.3599999999402090E+00   1.4629999999849982E+01   2.0900000002466657E+00
Al   8.3599999999987311E+00   1.2540000000244905E+01   4.1799999999756370E+00
Al   1.0449999999900959E+01   1.4630000000262584E+01   4.1800000003228961E+00
Al   1.0449999999834374E+01   1.2539999999796569E+01   6.2699999998785509E+00
Al   8.3600000003845665E+00   1.4630000000398756E+01   6.2699999999271023E+00
Al   8.3600000002463464E+00   1.2540000000347355E+01   8.3600000003910591E+00
Al   1.0449999999941783E+01   1.4629999999991105E+01   8.3600000002741766E+00
Al   1.0450000000355745E+01   1.2540000000359093E+01   1.0450000000248284E+01
Al   8.3600000003589923E+00   1.4630000000249826E+01   1.0450000000219141E+01
Al   1.2540000000217532E+01   1.6719999999996016E+01   3.9687588102018845E-10
Al   1.4629999999887376E+01   2.0899999998194665E+00   1.2539999999878388E+01
Al   1.4629999999969183E+01   3.1736332391383183E-10   2.0899999999462229E+00
Al   1.2539999999834549E+01   2.0899999998403445E+00   2.0899999998734429E+00
Al   1.2539999999802744E+01   1.6719999999892963E+01   4.1799999998539032E+00
Al   1.4630000000268250E+01   2.0899999999580809E+00   4.1800000003047417E+00
Al   1.4630000000314142E+01   1.6719999999889701E+01   6.2699999998484923E+00
Al   1.2540000000219631E+01   2.0900000003869197E+00   6.2700000002681762E+00
Al   1.2539999999796621E+01   1.6719999999959843E+01   8.3600000002796939E+00
Al   1.4630000000353927E+01   2.0899999998912273E+00   8.3600000002346597E+00
Al   1.4630000000409426E+01   3.6958597115185386E-10   1.0450000000378450E+01
Al   1.2540000000340843E+01   2.0900000003825641E+00   1.0450000000236521E+01
Al   1.2539999999854953E+01   4.1799999999096569E+00   3.4627036718790410E-10
Al   1.4630000000383133E+01   6.2700000003335292E+00   3.1901209709608316E-10
Al   1.4629999999964102E+01   4.1799999999502138E+00   2.0899999999685002E+00
Al   1.2539999999794652E+01   6.2700000002721987E+00   2.0899999999349816E+00
Al   1.2539999999924589E+01   4.1799999998434414E+00   4.1800000003669862E+00
Al   1.4630000000282074E+01   6.2700000003090821E+00   4.1800000003235978E+00
Al   1.4629999999906353E+01   4.1799999998410655E+00   6.2699999998828417E+00
Al   1.2540000000318582E+01   6.2700000002859539E+00   6.2700000004126357E+00
Al   1.2539999999940070E+01   4.1799999998285262E+00   8.3600000003856714E+00
Al   1.4629999999924927E+01   6.2700000002781469E+00   8.3599999998193368E+00
Al   1.4629999999973826E+01   4.1800000002277082E+00   1.0450000000245785E+01
Al   1.2540000000314004E+01   6.2699999998390812E+00   1.0449999999830396E+01
Al   1.2539999999885554E+01   8.3599999998528194E+00   1.2539999999828698E+01
Al   1.4629999999969410E+01   1.0449999999829759E+01   2.9743550498132432E-10
Al   1.4629999999844433E+01   8.3599999998843586E+00   2.0900000003949151E+00
Al   1.2539999999879562E+01   1.0450000000392244E+01   2.0900000002409485E+00
Al   1.2539999999834494E+01   8.3600000003187009E+00   4.1799999998455863E+00
Al   1.4629999999963454E+01   1.0449999999905478E+01   4.1799999999338482E+00
Al   1.4629999999820956E+01   8.3599999999602890E+00   6.2700000003356733E+00
Al   1.2539999999970755E+01   1.0449999999936789E+01   6.2699999998579710E+00
Al   1.2540000000262248E+01   8.3599999999236729E+00   8.3600000003168553E+00
Al   1.4630000000325374E+01   1.0449999999958564E+01   8.3599999999771804E+00
Al   1.4630000000343724E+01   8.3599999998185499E+00   1.0449999999900776E+01
Al   1.2539999999846795E+01   1.0450000000377939E+01   1.0449999999924538E+01
Al   1.2539999999931448E+01   1.2540000000328114E+01   3.5507616448377835E-10
Al   1.4630000000230577E+01   1.4629999999978100E+01   1.2539999999871938E+01
Al   1.4630000000345397E+01   1.2540000000243543E+01   2.0899999997977252E+00
Al   1.2540000000345501E+01   1.4629999999843154E+01   2.0899999998814525E+00
Al   1.2540000000383513E+01   1.2540000000271064E+01   4.1800000004142408E+00
Al   1.4630000000352888E+01   1.4630000000319541E+01   4.1800000003936164E+00
Al   1.4630000000296402E+01   1.2540000000347980E+01   6.2700000002150542E+00
Al   1.2540000000210076E+01   1.4630000000410940E+01   6.2699999998438960E+00
Al   1.2539999999991416E+01   1.2540000000328478E+01   8.3600000003583013E+00
Al   1.4630000000307023E+01   1.4629999999894878E+01   8.3599999998579282E+00
Al   1.4630000000412091E+01   1.2540000000340759E+01   1.0450000000330480E+01
Al   1.2540000000385442E+01   1.4629999999993510E+01   1.0449999999880470E+01
Cu	12.799030978521	4.50845540461057	17.9036954001682
Cu	13.6270438322667	9.01054204155072	18.1108130211197
Cu	4.65316061832011	10.6640474039961	18.4095316263033
Cu	5.25672822759162	7.98208042189589	17.6339264120596
Cu	10.4385410350616	9.66886429670031	15.7829982002387
Cu	11.415645124569	4.23959370069053	12.5602364535334
Cu	13.2211124250306	15.2858466139808	16.0046010503033
Cu	11.8850870507383	10.0585309317345	15.3883163345718
Cu	0.416478215946648	7.5525476453865	13.4918906286584
Cu	9.33697941054336	8.89972350193704	16.8896223556552
Cu	4.97638898518329	9.74387508853027	19.5235912678082
Cu	4.19932059816039	16.5602715780307	14.0455861638788
Cu	12.622927637738	11.1682891613675	15.0131269126165
Cu	1.65232276972791	5.44337767716442	18.1089872318207
Cu	14.6136515727843	5.08382372243578	14.5145052164432
Cu	11.0427129968433	14.4082267341445	16.6963249764833
Cu	4.90413851516125	5.66958487603672	18.9405744883859
Cu	13.8114817688865	15.5466284055567	20.573166664911
Cu	16.5541897897446	4.70855375377153	17.2140567605559
Cu	3.7768966904347	9.48686260895437	18.8858503544555
Cu	3.14813165820206	2.74772395111886	19.5701109003926
Cu	3.64549804513288	3.5023694658469	16.6953631990694
Cu	14.4275145748728	2.10784299334391	15.3805689221979
Cu	14.3516006769315	10.7559088224807	13.3886020451534
Cu	4.62993016838022	2.04373222387671	19.0334719816471
Cu	16.4100219308365	15.7569062339017	14.1858575539681
Cu	6.43628896434431	2.70360407430247	12.950977760794
Cu	15.487847678501	4.25192272914233	16.1551241127099
Cu	9.61902541556199	7.07056917207081	14.3145381192025
Cu	1.08580055562832	13.0839393882044	17.8866175975627
Cu	7.21279665198981	15.9520311779388	18.1436254492858
Cu	2.244656392067	6.65649542269881	19.2838867688791
Cu	10.5420640318734	13.8109196851292	19.9565744377965
Cu	0.716262829387104	10.2968644030065	13.2011619302036
Cu	13.404687253228	2.38217259747449	16.3472114335142
Cu	8.33727163104915	14.4440994937878	16.767945138221
Cu	9.14303251532765	4.53656100273686	16.7147173283316
Cu	3.55474585216944	8.35782137278544	15.7722395730536
Cu	11.5268558701242	11.3222473838104	12.7720182481142
Cu	7.43473992782876	2.91519933925872	19.5554160186194
Cu	4.93143831325878	9.73483405212297	15.6024080112013
Cu	14.9170142172894	8.16902837769348	18.8132111318718
Cu	11.4327423047679	0.164042628566613	20.2816657755906
Cu	13.6837533285284	4.93801903776187	19.8801576521675
Cu	6.17755528682461	6.99337323278248	15.703425540628
Cu	1.35441889053419	9.23055124555355	16.3268545637561
Cu	8.4696522083066	10.9649859469451	19.654028875727
Cu	14.342400339836	8.25890715252344	14.4983397831945
Cu	5.00611833260699	8.54327062286345	13.703197301873
Cu	1.11995179438841	13.0154777331504	16.0022021857553
Cu	11.8751202754706	12.49627608811	15.8618649220345
Cu	2.03875344673379	3.25836270078628	12.617652892655
Cu	0.515748179474553	11.6134683656224	14.561119509545
Cu	4.74519116114282	14.6331241027098	15.9484097496017
Cu	5.33714225802467	5.16794380288306	13.4507058590263
Cu	7.13134711956648	8.00279063083412	19.2012738032762
Cu	7.81429299995712	8.44325591068523	16.0743803907373
Cu	9.30186386413661	16.2092350717842	15.9565514546338
Cu	1.66429490478362	3.52747392790828	17.6427432309169
Cu	10.3019963101976	10.4245559537548	13.9834060691124
Cu	14.6706989737043	6.05074617130925	17.5256545003745
Cu	10.0805742360552	9.82230098455785	18.0433896618319
Cu	12.1039341642285	7.31698409602692	16.0150760287443
Cu	10.5484680632834	2.49645204387379	15.3159961404623
Cu	6.11146304011844	13.4498690625451	17.980262137325
Cu	8.48888849136915	15.6777566112265	14.0255345844653
Cu	2.48324931848862	14.1937360879001	18.6612755893971
Cu	4.90814791832324	15.0638953583607	18.2894779051349
Cu	12.7277042732276	4.65465273222763	14.9047935436182
Cu	8.79117481104456	2.82556284443689	15.8095344010031
Cu	9.21371582449865	3.69546381974781	14.8055020837492
Cu	0.955781346715775	8.14749287591406	17.207207471389
Cu	0.922652197283724	8.88450765432007	19.904364749718
Cu	13.5046179029447	13.2256064663518	19.6392781191024
Cu	4.00815918413088	12.364108831373	15.5167886291969
Cu	16.586603176307	2.21270789988433	17.0560528179579
Cu	8.42335464518569	10.3155013148868	13.3910005850406
Cu	11.7328359422663	14.7002878315593	12.6058583723121
Cu	8.99858224936104	0.220996692775781	14.2392125729368
Cu	15.4403095558832	14.5144929766287	19.1167591169107
Cu	8.19083618910798	11.9988859700363	13.6266131443657
Cu	9.14801101622558	13.7220327673425	15.5425700429977
Cu	5.41494477051296	5.75226795275836	15.7797310057851
Cu	3.01952113303785	9.50475179914187	13.869530575859
Cu	14.9123408035228	1.42012982670612	19.6532972053208
Cu	3.66495523658621	4.60131403538361	18.0619412994943
Cu	6.82769784033409	5.90904238950693	13.338612084444
Cu	8.35930238272563	8.29749593764221	20.1002989448128
Cu	14.586854272338	12.2278219197987	15.7516216615916
Cu	0.951818383941135	11.9752639773515	20.1090340439986
Cu	6.99693797812594	12.6149888744285	16.8186629332974
Cu	3.73903323405604	6.91651314406731	20.0478857319455
Cu	14.937303499333	15.1535247372279	17.3654218917001
Cu	1.01453375863062	10.8747195936599	17.4580386731918
Cu	10.5940793948068	13.918554344789	14.7068881709299
Cu	6.72301314484752	9.20059052966763	20.3661105459138
Cu	7.99483482188217	1.24323017255053	16.7172084469206
Cu	4.58415347906431	1.71491413114415	15.010034640117
Cu	6.40304125298449	11.90339504362	13.6590487367168
Cu	7.07705366214965	3.95767346009869	13.151495495725
Cu	1.31826668236282	5.39055073036326	12.7879117264152
Cu	9.2636709984321	10.8991545538085	16.6369765100786
Cu	4.53579350426792	13.4567560499954	19.9860178574787
Cu	11.8150681474116	2.61526801388616	19.4898326401497
Cu	8.6625820222308	5.05509644823558	20.2697098830676
Cu	2.81131841066544	14.9148749583836	13.768224353663
Cu	9.48471615120839	0.0819364218272805	18.9990564453918
Cu	0.315866264676062	4.49245330533677	20.3392197374215
Cu	4.38992108134028	12.8871701733717	13.8677190239516
Cu	2.33551611555902	1.53001337096269	18.3278585987477
Cu	10.7805426120433	5.53637484935851	17.4669762859838
Cu	16.1317340215484	11.5160902638883	16.9650334821357
Cu	11.3392774593742	8.52492948885451	18.4568186348734
Cu	9.854074575516	16.4686531260721	13.2447856347929
Cu	6.30672352720296	1.86632166105883	18.6109528189297
Cu	2.32504313152115	10.6441600147574	17.9796577436561
Cu	7.6992343657403	11.3402676873752	17.7104288749536
Cu	9.02117835365387	7.56622084857748	15.6874825260921
Cu	7.49896270645081	2.09422354573342	17.7649875732762
Cu	4.71821763723677	2.13778060978672	16.9247393264681
Cu	13.1557428984202	14.1582377433563	17.8330128719688
Cu	14.595134934551	10.9542609736406	19.8705125684882
Cu	6.25133317436276	2.09064809308531	16.562495251724
Cu	1.5567731686083	15.8598002040256	17.7324094679219
Cu	11.1396469805952	12.8376838186153	18.192437744575
Cu	2.79209866246827	12.1877628753319	18.7351772368388
Cu	3.6163983945346	12.0552771747138	12.7784475471643
Cu	13.3861456380154	0.465750685259864	16.8404757768968
Cu	12.6821094065387	0.708038877679795	12.7381639261342
Cu	5.2189696176501	14.3136806734893	14.2786568755633
Cu	2.03611176943948	2.68300677624297	15.6879159755755
Cu	5.74717206273845	15.3068101741301	15.299269623982
Cu	6.49581494614261	0.942907718056692	12.8284902810172
Cu	6.89388675060402	5.2259570588937	19.3255058221933
Cu	0.67026520822956	13.6170294589985	12.99577603979
Cu	1.69765365054967	6.22024758576948	16.8375063654607
Cu	8.33370648656197	6.51136304577393	14.5535150768588
Cu	11.973048410814	15.9464370866353	18.1877980899987
Cu	11.9678732448446	13.2470465309393	14.0011355014134
Cu	6.02390401585735	14.3012127973402	12.805026518535
Cu	4.54796882294213	7.20342344547037	16.0817404699271
Cu	0.419579056547695	11.0205257035231	19.3642214233942
Cu	12.3473333832126	0.959715142831597	18.4495174403875
Cu	4.89801455688794	2.68349161888087	13.8073175774789
Cu	2.06080641180407	10.4380979962604	13.7480556924959
Cu	16.2539051126916	16.0931464640971	17.2252662999754
Cu	2.90523834004256	6.45309262533448	13.4111023594084
Cu	14.9482316267824	1.07357080583965	14.5322391499524
Cu	10.2290274280633	9.66672036925593	19.8257562514946
Cu	2.82839474145466	16.5074723269587	18.9953775019745
Cu	12.1452792899975	0.85745736289106	15.1204025661706
Cu	0.400885073155204	4.06354898688987	13.6431419620792
Cu	1.5704414958311	0.551740243683391	13.5817153790036
Cu	7.64038499011753	1.93384479223721	14.4788633847326
Cu	7.66623328026465	7.78450592217381	17.6258225179355
Cu	16.1145309992092	14.1655696595441	14.3509965694077
Cu	13.6450235324286	14.9856305608977	13.9725799156608
Cu	5.80440751512875	8.15434904915523	19.6040942465249
Cu	15.3706496327201	2.82595487827687	16.663298456602
Cu	15.5663546061366	6.49819233427954	18.8452168258964
Cu	0.42085524428924	13.8344464101764	18.9751294033253
Cu	9.71402634923028	14.2658959324671	18.9437441073324
Cu	6.69313694318277	3.43878913885729	17.2844733181402
Cu	13.2818073378179	10.1390822333017	15.4791890449624
Cu	5.63286735850944	4.55633285158578	20.1920190183595
Cu	9.01157532427829	14.5140103240033	13.4924177808879
Cu	16.6169426195583	10.1130458850041	18.1800561417454
Cu	10.6936044092988	4.19531981338037	19.1852214189154
Cu	3.90930557674466	0.866211764913098	16.996316813472
Cu	11.5596587971377	5.70013481939089	13.7443893625587
Cu	10.9203726729093	3.16541562877169	16.8103385796416
Cu	9.01361060343515	1.43919978098762	15.0853174072735
Cu	13.657472650976	1.48172818770942	18.7690431967986
Cu	11.0041385519756	10.7861763825256	18.1458741346076
Cu	15.5820429139595	3.02109429659875	13.6396649879738
Cu	2.57557848853903	14.0060647403984	15.7014430999998
Cu	3.71034323876774	15.5721081233208	18.0915905089599
Cu	6.74906428199897	16.4291647778999	15.5512194403813
Cu	6.63171797581987	10.5418182089817	19.4703901474322
Cu	0.799411437739731	0.0120195346373159	15.8102239589448
Cu	10.3729089304063	7.58052348922646	18.5723099393689
Cu	11.6308651155984	10.0332483322756	20.4047368050191
Cu	3.1563867615636	11.727570661316	16.863087798099
Cu	5.48069071185555	16.2682617015994	17.3580127579814
Cu	0.731706621254369	0.0792769118742381	18.185044203673
Cu	3.17202959776824	2.5667791383047	18.1802625037274
Cu	4.05665159740644	4.87857565501452	14.7084469461943
Cu	7.42823157328592	3.88364640505685	15.1255275673484
Cu	7.70659462447136	12.5924952279666	18.8183972287748
Cu	2.64314683429728	11.8348960456105	14.2974869901341
Cu	2.78948255442624	16.208403160934	15.6754819944843
Cu	5.18287655724755	11.3285317930749	14.5386836707561