# generated using pymatgen
data_PbI2
_symmetry_space_group_name_H-M   'P 1'
_cell_length_a   4.62659538
_cell_length_b   4.62659538
_cell_length_c   22.04357415
_cell_angle_alpha   90.00000000
_cell_angle_beta   90.00000000
_cell_angle_gamma   120.00000000
_symmetry_Int_Tables_number   1
_chemical_formula_structural   PbI2
_chemical_formula_sum   'Pb3 I6'
_cell_volume   408.63511437
_cell_formula_units_Z   3
loop_
 _symmetry_equiv_pos_site_id
 _symmetry_equiv_pos_as_xyz
  1  'x, y, z'
loop_
 _atom_type_symbol
 _atom_type_oxidation_number
  Pb2+  2.0
  I-  -1.0
loop_
 _atom_site_type_symbol
 _atom_site_label
 _atom_site_symmetry_multiplicity
 _atom_site_fract_x
 _atom_site_fract_y
 _atom_site_fract_z
 _atom_site_occupancy
  Pb2+  Pb0  1  0.00000000  0.00000000  0.00000000  1
  Pb2+  Pb1  1  0.66666667  0.33333333  0.33333333  1
  Pb2+  Pb2  1  0.33333333  0.66666667  0.66666667  1
  I-  I3  1  0.66666667  0.33333333  0.08468468  1
  I-  I4  1  0.00000000  0.00000000  0.24864865  1
  I-  I5  1  0.33333333  0.66666667  0.41801802  1
  I-  I6  1  0.66666667  0.33333333  0.58198198  1
  I-  I7  1  0.00000000  0.00000000  0.75135135  1
  I-  I8  1  0.33333333  0.66666667  0.91531532  1
