45
Lattice="7.8 0.0 0.0 0.0 7.8 0.0 0.0 0.0 7.8" Origin="-1.95 -1.95 -1.95" Properties=pos:R:3:species:S:1
O	1.95000000	0.00000000	0.00000000
O	1.95000000	0.00000000	3.90000000
O	1.95000000	3.90000000	0.00000000
O	1.95000000	3.90000000	3.90000000
O	0.00000000	1.95000000	0.00000000
O	0.00000000	1.95000000	3.90000000
O	3.90000000	1.95000000	0.00000000
O	3.90000000	1.95000000	3.90000000
O	0.00000000	0.00000000	1.95000000
O	0.00000000	3.90000000	1.95000000
O	3.90000000	0.00000000	1.95000000
O	3.90000000	3.90000000	1.95000000
Sr	1.95000000	1.95000000	1.95000000
Ti	0.00000000	0.00000000	0.00000000
Ti	0.00000000	0.00000000	3.90000000
Ti	0.00000000	3.90000000	0.00000000
Ti	0.00000000	3.90000000	3.90000000
Ti	3.90000000	0.00000000	0.00000000
Ti	3.90000000	0.00000000	3.90000000
Ti	3.90000000	3.90000000	0.00000000
Ti	3.90000000	3.90000000	3.90000000
O	-1.95000000	0.00000000	0.00000000
O	0.00000000	-1.95000000	0.00000000
O	0.00000000	0.00000000	-1.95000000
O	-1.95000000	0.00000000	3.90000000
O	0.00000000	-1.95000000	3.90000000
O	0.00000000	0.00000000	5.85000000
O	-1.95000000	3.90000000	0.00000000
O	0.00000000	3.90000000	-1.95000000
O	0.00000000	5.85000000	0.00000000
O	-1.95000000	3.90000000	3.90000000
O	0.00000000	3.90000000	5.85000000
O	0.00000000	5.85000000	3.90000000
O	3.90000000	-1.95000000	0.00000000
O	3.90000000	0.00000000	-1.95000000
O	5.85000000	0.00000000	0.00000000
O	3.90000000	-1.95000000	3.90000000
O	3.90000000	0.00000000	5.85000000
O	5.85000000	0.00000000	3.90000000
O	3.90000000	3.90000000	-1.95000000
O	3.90000000	5.85000000	0.00000000
O	5.85000000	3.90000000	0.00000000
O	3.90000000	3.90000000	5.85000000
O	3.90000000	5.85000000	3.90000000
O	5.85000000	3.90000000	3.90000000
