# generated using pymatgen
data_In
_symmetry_space_group_name_H-M   'P 1'
_cell_length_a   3.33286160
_cell_length_b   3.33286160
_cell_length_c   25.40853917
_cell_angle_alpha   90.00000000
_cell_angle_beta   90.00000000
_cell_angle_gamma   120.00000000
_symmetry_Int_Tables_number   1
_chemical_formula_structural   In
_chemical_formula_sum   In9
_cell_volume   244.42458513
_cell_formula_units_Z   9
loop_
 _symmetry_equiv_pos_site_id
 _symmetry_equiv_pos_as_xyz
  1  'x, y, z'
loop_
 _atom_site_type_symbol
 _atom_site_label
 _atom_site_symmetry_multiplicity
 _atom_site_fract_x
 _atom_site_fract_y
 _atom_site_fract_z
 _atom_site_occupancy
  In  In0  1  0.000000  0.000000  0.000000  1
  In  In1  1  0.000000  0.000000  0.778336  1
  In  In2  1  0.333333  0.666667  0.888331  1
  In  In3  1  0.666667  0.333333  0.333333  1
  In  In4  1  0.666667  0.333333  0.111669  1
  In  In5  1  1.000000  0.000000  0.221664  1
  In  In6  1  0.333333  0.666667  0.666667  1
  In  In7  1  0.333333  0.666667  0.445003  1
  In  In8  1  0.666667  0.333333  0.554997  1
