45
Lattice="7.978 0.0 0.0 0.0 7.978 0.0 0.0 0.0 7.978" Origin="-1.9945 -1.9945 -1.9945" Properties=pos:R:3:species:S:1
O	1.99450000	0.00000000	0.00000000
O	1.99450000	0.00000000	3.98900000
O	1.99450000	3.98900000	0.00000000
O	1.99450000	3.98900000	3.98900000
O	0.00000000	1.99450000	0.00000000
O	0.00000000	1.99450000	3.98900000
O	3.98900000	1.99450000	0.00000000
O	3.98900000	1.99450000	3.98900000
O	0.00000000	0.00000000	1.99450000
O	0.00000000	3.98900000	1.99450000
O	3.98900000	0.00000000	1.99450000
O	3.98900000	3.98900000	1.99450000
K	1.99450000	1.99450000	1.99450000
Ta	0.00000000	0.00000000	0.00000000
Ta	0.00000000	0.00000000	3.98900000
Ta	0.00000000	3.98900000	0.00000000
Ta	0.00000000	3.98900000	3.98900000
Ta	3.98900000	0.00000000	0.00000000
Ta	3.98900000	0.00000000	3.98900000
Ta	3.98900000	3.98900000	0.00000000
Ta	3.98900000	3.98900000	3.98900000
O	-1.99450000	0.00000000	0.00000000
O	0.00000000	-1.99450000	0.00000000
O	0.00000000	0.00000000	-1.99450000
O	-1.99450000	0.00000000	3.98900000
O	0.00000000	-1.99450000	3.98900000
O	0.00000000	0.00000000	5.98350000
O	-1.99450000	3.98900000	0.00000000
O	0.00000000	3.98900000	-1.99450000
O	0.00000000	5.98350000	0.00000000
O	-1.99450000	3.98900000	3.98900000
O	0.00000000	3.98900000	5.98350000
O	0.00000000	5.98350000	3.98900000
O	3.98900000	-1.99450000	0.00000000
O	3.98900000	0.00000000	-1.99450000
O	5.98350000	0.00000000	0.00000000
O	3.98900000	-1.99450000	3.98900000
O	3.98900000	0.00000000	5.98350000
O	5.98350000	0.00000000	3.98900000
O	3.98900000	3.98900000	-1.99450000
O	3.98900000	5.98350000	0.00000000
O	5.98350000	3.98900000	0.00000000
O	3.98900000	3.98900000	5.98350000
O	3.98900000	5.98350000	3.98900000
O	5.98350000	3.98900000	3.98900000
