# generated using pymatgen
data_AlCu
_symmetry_space_group_name_H-M   'P 1'
_cell_length_a   12.07880600
_cell_length_b   4.09577000
_cell_length_c   6.92031335
_cell_angle_alpha   90.00000000
_cell_angle_beta   124.94906864
_cell_angle_gamma   90.00000000
_symmetry_Int_Tables_number   1
_chemical_formula_structural   AlCu
_chemical_formula_sum   'Al10 Cu10'
_cell_volume   280.62083150
_cell_formula_units_Z   10
loop_
 _symmetry_equiv_pos_site_id
 _symmetry_equiv_pos_as_xyz
  1  'x, y, z'
loop_
 _atom_site_type_symbol
 _atom_site_label
 _atom_site_symmetry_multiplicity
 _atom_site_fract_x
 _atom_site_fract_y
 _atom_site_fract_z
 _atom_site_occupancy
  Al  Al0  1  0.00000000  0.50000000  0.50000000  1
  Al  Al1  1  0.84378000  0.00000000  0.53856900  1
  Al  Al2  1  0.15622000  0.00000000  0.46143100  1
  Al  Al3  1  0.62176900  0.00000000  0.00427500  1
  Al  Al4  1  0.37823100  0.00000000  0.99572500  1
  Al  Al5  1  0.50000000  0.00000000  0.50000000  1
  Al  Al6  1  0.34378000  0.50000000  0.53856900  1
  Al  Al7  1  0.65622000  0.50000000  0.46143100  1
  Al  Al8  1  0.12176900  0.50000000  0.00427500  1
  Al  Al9  1  0.87823100  0.50000000  0.99572500  1
  Cu  Cu10  1  0.00000000  0.00000000  0.00000000  1
  Cu  Cu11  1  0.24205300  0.50000000  0.75941600  1
  Cu  Cu12  1  0.75794700  0.50000000  0.24058400  1
  Cu  Cu13  1  0.89104800  0.00000000  0.22813800  1
  Cu  Cu14  1  0.10895200  0.00000000  0.77186200  1
  Cu  Cu15  1  0.50000000  0.50000000  0.00000000  1
  Cu  Cu16  1  0.74205300  0.00000000  0.75941600  1
  Cu  Cu17  1  0.25794700  0.00000000  0.24058400  1
  Cu  Cu18  1  0.39104800  0.50000000  0.22813800  1
  Cu  Cu19  1  0.60895200  0.50000000  0.77186200  1
