# generated using pymatgen
data_Mg2Si
_symmetry_space_group_name_H-M   'P 1'
_cell_length_a   6.36517200
_cell_length_b   6.36517200
_cell_length_c   6.36517200
_cell_angle_alpha   90.00000000
_cell_angle_beta   90.00000000
_cell_angle_gamma   90.00000000
_symmetry_Int_Tables_number   1
_chemical_formula_structural   Mg2Si
_chemical_formula_sum   'Mg8 Si4'
_cell_volume   257.88758251
_cell_formula_units_Z   4
loop_
 _symmetry_equiv_pos_site_id
 _symmetry_equiv_pos_as_xyz
  1  'x, y, z'
loop_
 _atom_site_type_symbol
 _atom_site_label
 _atom_site_symmetry_multiplicity
 _atom_site_fract_x
 _atom_site_fract_y
 _atom_site_fract_z
 _atom_site_occupancy
  Mg  Mg0  1  0.25000000  0.75000000  0.75000000  1
  Mg  Mg1  1  0.25000000  0.25000000  0.75000000  1
  Mg  Mg2  1  0.25000000  0.25000000  0.25000000  1
  Mg  Mg3  1  0.25000000  0.75000000  0.25000000  1
  Mg  Mg4  1  0.75000000  0.75000000  0.25000000  1
  Mg  Mg5  1  0.75000000  0.25000000  0.25000000  1
  Mg  Mg6  1  0.75000000  0.25000000  0.75000000  1
  Mg  Mg7  1  0.75000000  0.75000000  0.75000000  1
  Si  Si8  1  0.00000000  0.00000000  0.00000000  1
  Si  Si9  1  0.00000000  0.50000000  0.50000000  1
  Si  Si10  1  0.50000000  0.00000000  0.50000000  1
  Si  Si11  1  0.50000000  0.50000000  0.00000000  1
