# generated using pymatgen
data_Mn
_symmetry_space_group_name_H-M   'P 1'
_cell_length_a   8.61849754
_cell_length_b   8.61849754
_cell_length_c   8.61849754
_cell_angle_alpha   90.00000000
_cell_angle_beta   90.00000000
_cell_angle_gamma   90.00000000
_symmetry_Int_Tables_number   1
_chemical_formula_structural   Mn
_chemical_formula_sum   Mn58
_cell_volume   640.16906721
_cell_formula_units_Z   58
loop_
 _symmetry_equiv_pos_site_id
 _symmetry_equiv_pos_as_xyz
  1  'x, y, z'
loop_
 _atom_site_type_symbol
 _atom_site_label
 _atom_site_symmetry_multiplicity
 _atom_site_fract_x
 _atom_site_fract_y
 _atom_site_fract_z
 _atom_site_occupancy
  Mn  Mn0  1  0.000000  0.000000  0.000000  1
  Mn  Mn1  1  0.818787  0.818787  0.818787  1
  Mn  Mn2  1  0.181213  0.181213  0.818787  1
  Mn  Mn3  1  0.318787  0.681213  0.681213  1
  Mn  Mn4  1  0.181213  0.818787  0.181213  1
  Mn  Mn5  1  0.856204  0.535468  0.856204  1
  Mn  Mn6  1  0.143796  0.464532  0.856204  1
  Mn  Mn7  1  0.356204  0.964532  0.643796  1
  Mn  Mn8  1  0.143796  0.856204  0.464532  1
  Mn  Mn9  1  0.143796  0.143796  0.535468  1
  Mn  Mn10  1  0.035468  0.643796  0.643796  1
  Mn  Mn11  1  0.464532  0.856204  0.143796  1
  Mn  Mn12  1  0.464532  0.143796  0.856204  1
  Mn  Mn13  1  0.356204  0.643796  0.964532  1
  Mn  Mn14  1  0.856204  0.856204  0.535468  1
  Mn  Mn15  1  0.535468  0.856204  0.856204  1
  Mn  Mn16  1  0.143796  0.535468  0.143796  1
  Mn  Mn17  1  0.089059  0.282544  0.089059  1
  Mn  Mn18  1  0.410941  0.217456  0.589059  1
  Mn  Mn19  1  0.089059  0.717456  0.910941  1
  Mn  Mn20  1  0.410941  0.589059  0.217456  1
  Mn  Mn21  1  0.910941  0.910941  0.282544  1
  Mn  Mn22  1  0.282544  0.910941  0.910941  1
  Mn  Mn23  1  0.717456  0.089059  0.910941  1
  Mn  Mn24  1  0.717456  0.910941  0.089059  1
  Mn  Mn25  1  0.089059  0.910941  0.717456  1
  Mn  Mn26  1  0.089059  0.089059  0.282544  1
  Mn  Mn27  1  0.782544  0.589059  0.589059  1
  Mn  Mn28  1  0.910941  0.282544  0.910941  1
  Mn  Mn29  1  0.500000  0.500000  0.500000  1
  Mn  Mn30  1  0.318787  0.318787  0.318787  1
  Mn  Mn31  1  0.681213  0.681213  0.318787  1
  Mn  Mn32  1  0.818787  0.181213  0.181213  1
  Mn  Mn33  1  0.681213  0.318787  0.681213  1
  Mn  Mn34  1  0.356204  0.035468  0.356204  1
  Mn  Mn35  1  0.643796  0.964532  0.356204  1
  Mn  Mn36  1  0.856204  0.464532  0.143796  1
  Mn  Mn37  1  0.643796  0.356204  0.964532  1
  Mn  Mn38  1  0.643796  0.643796  0.035468  1
  Mn  Mn39  1  0.535468  0.143796  0.143796  1
  Mn  Mn40  1  0.964532  0.356204  0.643796  1
  Mn  Mn41  1  0.964532  0.643796  0.356204  1
  Mn  Mn42  1  0.856204  0.143796  0.464532  1
  Mn  Mn43  1  0.356204  0.356204  0.035468  1
  Mn  Mn44  1  0.035468  0.356204  0.356204  1
  Mn  Mn45  1  0.643796  0.035468  0.643796  1
  Mn  Mn46  1  0.589059  0.782544  0.589059  1
  Mn  Mn47  1  0.910941  0.717456  0.089059  1
  Mn  Mn48  1  0.589059  0.217456  0.410941  1
  Mn  Mn49  1  0.910941  0.089059  0.717456  1
  Mn  Mn50  1  0.410941  0.410941  0.782544  1
  Mn  Mn51  1  0.782544  0.410941  0.410941  1
  Mn  Mn52  1  0.217456  0.589059  0.410941  1
  Mn  Mn53  1  0.217456  0.410941  0.589059  1
  Mn  Mn54  1  0.589059  0.410941  0.217456  1
  Mn  Mn55  1  0.589059  0.589059  0.782544  1
  Mn  Mn56  1  0.282544  0.089059  0.089059  1
  Mn  Mn57  1  0.410941  0.782544  0.410941  1
