# generated using pymatgen
data_Au2O3
_symmetry_space_group_name_H-M   'P 1'
_cell_length_a   4.05581000
_cell_length_b   10.66223400
_cell_length_c   13.04533400
_cell_angle_alpha   90.00000000
_cell_angle_beta   90.00000000
_cell_angle_gamma   90.00000000
_symmetry_Int_Tables_number   1
_chemical_formula_structural   Au2O3
_chemical_formula_sum   'Au16 O24'
_cell_volume   564.13236192
_cell_formula_units_Z   8
loop_
 _symmetry_equiv_pos_site_id
 _symmetry_equiv_pos_as_xyz
  1  'x, y, z'
loop_
 _atom_type_symbol
 _atom_type_oxidation_number
  Au3+  3.0
  O2-  -2.0
loop_
 _atom_site_type_symbol
 _atom_site_label
 _atom_site_symmetry_multiplicity
 _atom_site_fract_x
 _atom_site_fract_y
 _atom_site_fract_z
 _atom_site_occupancy
  Au3+  Au0  1  0.75403850  0.36605700  0.45421450  1
  Au3+  Au1  1  0.75403850  0.13394300  0.04578550  1
  Au3+  Au2  1  0.00403850  0.38394300  0.20421450  1
  Au3+  Au3  1  0.00403850  0.11605700  0.29578550  1
  Au3+  Au4  1  0.25403850  0.36605700  0.95421450  1
  Au3+  Au5  1  0.25403850  0.13394300  0.54578550  1
  Au3+  Au6  1  0.50403850  0.38394300  0.70421450  1
  Au3+  Au7  1  0.50403850  0.11605700  0.79578550  1
  Au3+  Au8  1  0.25403850  0.86605700  0.45421450  1
  Au3+  Au9  1  0.25403850  0.63394300  0.04578550  1
  Au3+  Au10  1  0.50403850  0.88394300  0.20421450  1
  Au3+  Au11  1  0.50403850  0.61605700  0.29578550  1
  Au3+  Au12  1  0.75403850  0.86605700  0.95421450  1
  Au3+  Au13  1  0.75403850  0.63394300  0.54578550  1
  Au3+  Au14  1  0.00403850  0.88394300  0.70421450  1
  Au3+  Au15  1  0.00403850  0.61605700  0.79578550  1
  O2-  O16  1  0.44544600  0.00000000  0.00000000  1
  O2-  O17  1  0.69544600  0.25000000  0.25000000  1
  O2-  O18  1  0.11968850  0.26733250  0.08214300  1
  O2-  O19  1  0.11968850  0.23266750  0.41785700  1
  O2-  O20  1  0.86968850  0.01733250  0.16785700  1
  O2-  O21  1  0.86968850  0.48266750  0.33214300  1
  O2-  O22  1  0.94544600  0.00000000  0.50000000  1
  O2-  O23  1  0.19544600  0.25000000  0.75000000  1
  O2-  O24  1  0.61968850  0.26733250  0.58214300  1
  O2-  O25  1  0.61968850  0.23266750  0.91785700  1
  O2-  O26  1  0.36968850  0.01733250  0.66785700  1
  O2-  O27  1  0.36968850  0.48266750  0.83214300  1
  O2-  O28  1  0.94544600  0.50000000  0.00000000  1
  O2-  O29  1  0.19544600  0.75000000  0.25000000  1
  O2-  O30  1  0.61968850  0.76733250  0.08214300  1
  O2-  O31  1  0.61968850  0.73266750  0.41785700  1
  O2-  O32  1  0.36968850  0.51733250  0.16785700  1
  O2-  O33  1  0.36968850  0.98266750  0.33214300  1
  O2-  O34  1  0.44544600  0.50000000  0.50000000  1
  O2-  O35  1  0.69544600  0.75000000  0.75000000  1
  O2-  O36  1  0.11968850  0.76733250  0.58214300  1
  O2-  O37  1  0.11968850  0.73266750  0.91785700  1
  O2-  O38  1  0.86968850  0.51733250  0.66785700  1
  O2-  O39  1  0.86968850  0.98266750  0.83214300  1
