# generated using pymatgen
data_Ni
_symmetry_space_group_name_H-M   Fm-3m
_cell_length_a   3.50579758
_cell_length_b   3.50579758
_cell_length_c   3.50579758
_cell_angle_alpha   90.00000000
_cell_angle_beta   90.00000000
_cell_angle_gamma   90.00000000
_symmetry_Int_Tables_number   225
_chemical_formula_structural   Ni
_chemical_formula_sum   Ni4
_cell_volume   43.08841419
_cell_formula_units_Z   4
loop_
 _symmetry_equiv_pos_site_id
 _symmetry_equiv_pos_as_xyz
  1  'x, y, z'
  2  '-x, -y, -z'
  3  'z+1/2, y, -x+1/2'
  4  '-z, -y, x'
  5  '-x, y, -z'
  6  'x+1/2, -y+1/2, z'
  7  '-z, y, x'
  8  'z, -y+1/2, -x+1/2'
  9  'x+1/2, -y+1/2, -z'
  10  '-x, y, z'
  11  'z, -y, x'
  12  '-z+1/2, y, -x+1/2'
  13  '-x, -y, z'
  14  'x, y, -z'
  15  '-z, -y+1/2, -x+1/2'
  16  'z, y, x'
  17  '-y, z+1/2, -x+1/2'
  18  'y, -z, x'
  19  '-y, -x, -z'
  20  'y, x, z'
  21  '-y, -z, x'
  22  'y+1/2, z, -x+1/2'
  23  '-y+1/2, x+1/2, z'
  24  'y, -x, -z'
  25  'y+1/2, -z, -x+1/2'
  26  '-y, z, x'
  27  'y, x, -z'
  28  '-y, -x, z'
  29  'y, z, x'
  30  '-y, -z+1/2, -x+1/2'
  31  'y, -x, z'
  32  '-y+1/2, x+1/2, -z'
  33  '-z+1/2, -x, y+1/2'
  34  'z, x, -y'
  35  'x, -z+1/2, y+1/2'
  36  '-x, z, -y'
  37  'z, x+1/2, y+1/2'
  38  '-z, -x, -y'
  39  '-x+1/2, z, y+1/2'
  40  'x, -z, -y'
  41  'z, -x, -y'
  42  '-z, x+1/2, y+1/2'
  43  '-x, -z, -y'
  44  'x, z+1/2, y+1/2'
  45  '-z, x, -y'
  46  'z+1/2, -x, y+1/2'
  47  'x, z, -y'
  48  '-x+1/2, -z, y+1/2'
  49  'x+1/2, y+1/2, z'
  50  '-x+1/2, -y+1/2, -z'
  51  'z, y+1/2, -x+1/2'
  52  '-z+1/2, -y+1/2, x'
  53  '-x+1/2, y+1/2, -z'
  54  'x, -y, z'
  55  '-z+1/2, y+1/2, x'
  56  'z+1/2, -y, -x+1/2'
  57  'x, -y, -z'
  58  '-x+1/2, y+1/2, z'
  59  'z+1/2, -y+1/2, x'
  60  '-z, y+1/2, -x+1/2'
  61  '-x+1/2, -y+1/2, z'
  62  'x+1/2, y+1/2, -z'
  63  '-z+1/2, -y, -x+1/2'
  64  'z+1/2, y+1/2, x'
  65  '-y+1/2, z, -x+1/2'
  66  'y+1/2, -z+1/2, x'
  67  '-y+1/2, -x+1/2, -z'
  68  'y+1/2, x+1/2, z'
  69  '-y+1/2, -z+1/2, x'
  70  'y, z+1/2, -x+1/2'
  71  '-y, x, z'
  72  'y+1/2, -x+1/2, -z'
  73  'y, -z+1/2, -x+1/2'
  74  '-y+1/2, z+1/2, x'
  75  'y+1/2, x+1/2, -z'
  76  '-y+1/2, -x+1/2, z'
  77  'y+1/2, z+1/2, x'
  78  '-y+1/2, -z, -x+1/2'
  79  'y+1/2, -x+1/2, z'
  80  '-y, x, -z'
  81  '-z, -x+1/2, y+1/2'
  82  'z+1/2, x+1/2, -y'
  83  'x+1/2, -z, y+1/2'
  84  '-x+1/2, z+1/2, -y'
  85  'z+1/2, x, y+1/2'
  86  '-z+1/2, -x+1/2, -y'
  87  '-x, z+1/2, y+1/2'
  88  'x+1/2, -z+1/2, -y'
  89  'z+1/2, -x+1/2, -y'
  90  '-z+1/2, x, y+1/2'
  91  '-x+1/2, -z+1/2, -y'
  92  'x+1/2, z, y+1/2'
  93  '-z+1/2, x+1/2, -y'
  94  'z, -x+1/2, y+1/2'
  95  'x+1/2, z+1/2, -y'
  96  '-x, -z+1/2, y+1/2'
  97  'x+1/2, y, z+1/2'
  98  '-x+1/2, -y, -z+1/2'
  99  'z, y, -x'
  100  '-z+1/2, -y, x+1/2'
  101  '-x+1/2, y, -z+1/2'
  102  'x, -y+1/2, z+1/2'
  103  '-z+1/2, y, x+1/2'
  104  'z+1/2, -y+1/2, -x'
  105  'x, -y+1/2, -z+1/2'
  106  '-x+1/2, y, z+1/2'
  107  'z+1/2, -y, x+1/2'
  108  '-z, y, -x'
  109  '-x+1/2, -y, z+1/2'
  110  'x+1/2, y, -z+1/2'
  111  '-z+1/2, -y+1/2, -x'
  112  'z+1/2, y, x+1/2'
  113  '-y+1/2, z+1/2, -x'
  114  'y+1/2, -z, x+1/2'
  115  '-y+1/2, -x, -z+1/2'
  116  'y+1/2, x, z+1/2'
  117  '-y+1/2, -z, x+1/2'
  118  'y, z, -x'
  119  '-y, x+1/2, z+1/2'
  120  'y+1/2, -x, -z+1/2'
  121  'y, -z, -x'
  122  '-y+1/2, z, x+1/2'
  123  'y+1/2, x, -z+1/2'
  124  '-y+1/2, -x, z+1/2'
  125  'y+1/2, z, x+1/2'
  126  '-y+1/2, -z+1/2, -x'
  127  'y+1/2, -x, z+1/2'
  128  '-y, x+1/2, -z+1/2'
  129  '-z, -x, y'
  130  'z+1/2, x, -y+1/2'
  131  'x+1/2, -z+1/2, y'
  132  '-x+1/2, z, -y+1/2'
  133  'z+1/2, x+1/2, y'
  134  '-z+1/2, -x, -y+1/2'
  135  '-x, z, y'
  136  'x+1/2, -z, -y+1/2'
  137  'z+1/2, -x, -y+1/2'
  138  '-z+1/2, x+1/2, y'
  139  '-x+1/2, -z, -y+1/2'
  140  'x+1/2, z+1/2, y'
  141  '-z+1/2, x, -y+1/2'
  142  'z, -x, y'
  143  'x+1/2, z, -y+1/2'
  144  '-x, -z, y'
  145  'x, y+1/2, z+1/2'
  146  '-x, -y+1/2, -z+1/2'
  147  'z+1/2, y+1/2, -x'
  148  '-z, -y+1/2, x+1/2'
  149  '-x, y+1/2, -z+1/2'
  150  'x+1/2, -y, z+1/2'
  151  '-z, y+1/2, x+1/2'
  152  'z, -y, -x'
  153  'x+1/2, -y, -z+1/2'
  154  '-x, y+1/2, z+1/2'
  155  'z, -y+1/2, x+1/2'
  156  '-z+1/2, y+1/2, -x'
  157  '-x, -y+1/2, z+1/2'
  158  'x, y+1/2, -z+1/2'
  159  '-z, -y, -x'
  160  'z, y+1/2, x+1/2'
  161  '-y, z, -x'
  162  'y, -z+1/2, x+1/2'
  163  '-y, -x+1/2, -z+1/2'
  164  'y, x+1/2, z+1/2'
  165  '-y, -z+1/2, x+1/2'
  166  'y+1/2, z+1/2, -x'
  167  '-y+1/2, x, z+1/2'
  168  'y, -x+1/2, -z+1/2'
  169  'y+1/2, -z+1/2, -x'
  170  '-y, z+1/2, x+1/2'
  171  'y, x+1/2, -z+1/2'
  172  '-y, -x+1/2, z+1/2'
  173  'y, z+1/2, x+1/2'
  174  '-y, -z, -x'
  175  'y, -x+1/2, z+1/2'
  176  '-y+1/2, x, -z+1/2'
  177  '-z+1/2, -x+1/2, y'
  178  'z, x+1/2, -y+1/2'
  179  'x, -z, y'
  180  '-x, z+1/2, -y+1/2'
  181  'z, x, y'
  182  '-z, -x+1/2, -y+1/2'
  183  '-x+1/2, z+1/2, y'
  184  'x, -z+1/2, -y+1/2'
  185  'z, -x+1/2, -y+1/2'
  186  '-z, x, y'
  187  '-x, -z+1/2, -y+1/2'
  188  'x, z, y'
  189  '-z, x+1/2, -y+1/2'
  190  'z+1/2, -x+1/2, y'
  191  'x, z+1/2, -y+1/2'
  192  '-x+1/2, -z+1/2, y'
loop_
 _atom_site_type_symbol
 _atom_site_label
 _atom_site_symmetry_multiplicity
 _atom_site_fract_x
 _atom_site_fract_y
 _atom_site_fract_z
 _atom_site_occupancy
  Ni  Ni1  4  0.000000  0.000000  0.000000  1
