# generated using pymatgen
data_SiO2
_symmetry_space_group_name_H-M   'P 1'
_cell_length_a   17.37358639
_cell_length_b   17.37358639
_cell_length_c   13.02581024
_cell_angle_alpha   90.00000000
_cell_angle_beta   90.00000000
_cell_angle_gamma   120.00000000
_symmetry_Int_Tables_number   1
_chemical_formula_structural   SiO2
_chemical_formula_sum   'Si24 O48'
_cell_volume   3404.97819446
_cell_formula_units_Z   24
loop_
 _symmetry_equiv_pos_site_id
 _symmetry_equiv_pos_as_xyz
  1  'x, y, z'
loop_
 _atom_site_type_symbol
 _atom_site_label
 _atom_site_symmetry_multiplicity
 _atom_site_fract_x
 _atom_site_fract_y
 _atom_site_fract_z
 _atom_site_occupancy
  Si  Si1  1  0.874165  0.437082  0.166667  1
  Si  Si2  1  0.836350  0.276142  0.283817  1
  Si  Si3  1  0.125835  0.562918  0.166667  1
  Si  Si4  1  0.836350  0.560208  0.049517  1
  Si  Si5  1  0.620165  0.000000  0.500000  1
  Si  Si6  1  0.276142  0.439792  0.950483  1
  Si  Si7  1  0.562918  0.125835  0.500000  1
  Si  Si8  1  0.439792  0.163650  0.617150  1
  Si  Si9  1  0.276142  0.836350  0.382850  1
  Si  Si10  1  0.379835  0.379835  0.833333  1
  Si  Si11  1  0.163650  0.439792  0.049517  1
  Si  Si12  1  0.379835  0.000000  0.500000  1
  Si  Si13  1  0.620165  0.620165  0.833333  1
  Si  Si14  1  0.000000  0.620165  0.166667  1
  Si  Si15  1  0.437082  0.562918  0.833333  1
  Si  Si16  1  0.560208  0.836350  0.617150  1
  Si  Si17  1  0.437082  0.874165  0.500000  1
  Si  Si18  1  0.723858  0.560208  0.950483  1
  Si  Si19  1  0.000000  0.379835  0.166667  1
  Si  Si20  1  0.439792  0.276142  0.716183  1
  Si  Si21  1  0.163650  0.723858  0.283817  1
  Si  Si22  1  0.560208  0.723858  0.716183  1
  Si  Si23  1  0.723858  0.163650  0.382850  1
  Si  Si24  1  0.562918  0.437082  0.833333  1
  O  O25  1  0.253568  0.431754  0.076150  1
  O  O26  1  0.934564  0.529735  0.232539  1
  O  O27  1  0.295847  0.362285  0.907038  1
  O  O28  1  0.538241  0.181356  0.581761  1
  O  O29  1  0.362285  0.295847  0.759629  1
  O  O30  1  0.461759  0.818644  0.581761  1
  O  O31  1  0.704153  0.637715  0.907038  1
  O  O32  1  0.568246  0.746432  0.590516  1
  O  O33  1  0.404828  0.934564  0.565872  1
  O  O34  1  0.568246  0.821814  0.742817  1
  O  O35  1  0.404828  0.470265  0.767461  1
  O  O36  1  0.595172  0.065436  0.565872  1
  O  O37  1  0.746432  0.568246  0.076150  1
  O  O38  1  0.643114  0.461759  0.915094  1
  O  O39  1  0.595172  0.529735  0.767461  1
  O  O40  1  0.470265  0.065436  0.434128  1
  O  O41  1  0.529735  0.595172  0.899205  1
  O  O42  1  0.065436  0.470265  0.232539  1
  O  O43  1  0.821814  0.568246  0.923850  1
  O  O44  1  0.356886  0.538241  0.915094  1
  O  O45  1  0.362285  0.066438  0.573705  1
  O  O46  1  0.066438  0.704153  0.240371  1
  O  O47  1  0.643114  0.181356  0.418239  1
  O  O48  1  0.746432  0.178186  0.257183  1
  O  O49  1  0.821814  0.253568  0.409484  1
  O  O50  1  0.637715  0.704153  0.759629  1
  O  O51  1  0.253568  0.821814  0.257183  1
  O  O52  1  0.818644  0.356886  0.248428  1
  O  O53  1  0.704153  0.066438  0.426295  1
  O  O54  1  0.431754  0.178186  0.742817  1
  O  O55  1  0.065436  0.595172  0.100795  1
  O  O56  1  0.431754  0.253568  0.590516  1
  O  O57  1  0.181356  0.643114  0.248428  1
  O  O58  1  0.637715  0.933562  0.573705  1
  O  O59  1  0.529735  0.934564  0.434128  1
  O  O60  1  0.356886  0.818644  0.418239  1
  O  O61  1  0.934564  0.404828  0.100795  1
  O  O62  1  0.066438  0.362285  0.092962  1
  O  O63  1  0.933562  0.295847  0.240371  1
  O  O64  1  0.295847  0.933562  0.426295  1
  O  O65  1  0.538241  0.356886  0.751572  1
  O  O66  1  0.178186  0.746432  0.409484  1
  O  O67  1  0.470265  0.404828  0.899205  1
  O  O68  1  0.181356  0.538241  0.084906  1
  O  O69  1  0.461759  0.643114  0.751572  1
  O  O70  1  0.178186  0.431754  0.923850  1
  O  O71  1  0.818644  0.461759  0.084906  1
  O  O72  1  0.933562  0.637715  0.092962  1
