# generated using pymatgen
data_SiO2
_symmetry_space_group_name_H-M   P3_121
_cell_length_a   5.02150230
_cell_length_b   5.02150230
_cell_length_c   5.51057000
_cell_angle_alpha   90.00000000
_cell_angle_beta   90.00000000
_cell_angle_gamma   120.00000000
_symmetry_Int_Tables_number   152
_chemical_formula_structural   SiO2
_chemical_formula_sum   'Si3 O6'
_cell_volume   120.33569979
_cell_formula_units_Z   3
loop_
 _symmetry_equiv_pos_site_id
 _symmetry_equiv_pos_as_xyz
  1  'x, y, z'
  2  '-y, x-y, z+1/3'
  3  '-x+y, -x, z+2/3'
  4  'y, x, -z'
  5  'x-y, -y, -z+2/3'
  6  '-x, -x+y, -z+1/3'
loop_
 _atom_site_type_symbol
 _atom_site_label
 _atom_site_symmetry_multiplicity
 _atom_site_fract_x
 _atom_site_fract_y
 _atom_site_fract_z
 _atom_site_occupancy
  Si  Si1  3  0.000000  0.476305  0.666667  1
  O  O2  6  0.158760  0.743906  0.461210  1
